<routes>
  <!--Define vehicle types-->
  <vType id="SP" vClass="passenger" carFollowModel="IDM" delta="4.0" tau="1.24" accel="1.3" decel="2.0" minGap="2.0" speedFactor="normc(0.6,0.001,0.5,2)" lcSpeedGain="4" lcKeepRight="0"/>

  <!--Define routes-->
  <route id="through" edges="loading upstream bottleneck downstream"/>

  <!--Define flows-->
  <flow begin="0" end="3600" depart_pos="base" depart_speed="max" departLane="random" id="thru" route="through" type="SP" vehsPerHour="4750"/>
</routes>