<?xml version="1.0" encoding="UTF-8"?>

<!-- generated on 2022-12-07 14:38:19 by Eclipse SUMO netedit Version 1.15.0
<configuration xmlns:xsi="http://www.w3.org/2001/XMLSchema-instance" xsi:noNamespaceSchemaLocation="http://sumo.dlr.de/xsd/netconvertConfiguration.xsd">

    <input>
        <sumo-net-file value="/Users/dave/Desktop/fall_22/ce_299/ce299_fall2022/src/assets/I80/i80.net.xml"/>
    </input>

    <output>
        <output-file value="/Users/dave/Desktop/fall_22/ce_299/ce299_fall2022/src/assets/I80/i80.net.xml"/>
    </output>

    <processing>
        <geometry.min-radius.fix.railways value="false"/>
        <geometry.max-grade.fix value="false"/>
        <offset.disable-normalization value="true"/>
        <lefthand value="0"/>
    </processing>

    <junctions>
        <no-turnarounds value="true"/>
        <junctions.corner-detail value="5"/>
        <junctions.limit-turn-speed value="5.50"/>
        <rectangular-lane-cut value="0"/>
    </junctions>

    <pedestrian>
        <walkingareas value="0"/>
    </pedestrian>

    <netedit>
        <additional-files value="/Users/dave/Desktop/fall_22/ce_299/ce299_fall2022/src/assets/I80/i80.add.xml"/>
    </netedit>

</configuration>
-->

<net version="1.9" junctionCornerDetail="5" limitTurnSpeed="5.50" xmlns:xsi="http://www.w3.org/2001/XMLSchema-instance" xsi:noNamespaceSchemaLocation="http://sumo.dlr.de/xsd/net_file.xsd">

    <location netOffset="-561541.56,-4187906.01" convBoundary="0.00,-10.15,597.11,1740.29" origBoundary="-122.300587,37.836478,-122.293747,37.852188" projParameter="+proj=utm +zone=10 +ellps=WGS84 +datum=WGS84 +units=m +no_defs"/>

    <type id="highway.bridleway" priority="1" numLanes="1" speed="2.78" allow="pedestrian" oneway="1" width="2.00"/>
    <type id="highway.bus_guideway" priority="1" numLanes="1" speed="27.78" allow="bus" oneway="1"/>
    <type id="highway.cycleway" priority="1" numLanes="1" speed="5.56" allow="bicycle" oneway="0" width="1.00"/>
    <type id="highway.footway" priority="1" numLanes="1" speed="2.78" allow="pedestrian" oneway="1" width="2.00"/>
    <type id="highway.ford" priority="1" numLanes="1" speed="2.78" allow="army" oneway="0"/>
    <type id="highway.living_street" priority="2" numLanes="1" speed="2.78" disallow="tram rail_urban rail rail_electric rail_fast ship" oneway="0"/>
    <type id="highway.motorway" priority="14" numLanes="2" speed="39.44" allow="private emergency authority army vip passenger hov taxi bus coach delivery truck trailer motorcycle evehicle custom1 custom2" oneway="1"/>
    <type id="highway.motorway_link" priority="9" numLanes="1" speed="22.22" allow="private emergency authority army vip passenger hov taxi bus coach delivery truck trailer motorcycle evehicle custom1 custom2" oneway="1"/>
    <type id="highway.path" priority="1" numLanes="1" speed="5.56" allow="pedestrian bicycle" oneway="0" width="2.00"/>
    <type id="highway.pedestrian" priority="1" numLanes="1" speed="2.78" allow="pedestrian" oneway="1" width="2.00"/>
    <type id="highway.primary" priority="12" numLanes="2" speed="27.78" disallow="tram rail_urban rail rail_electric rail_fast ship" oneway="0"/>
    <type id="highway.primary_link" priority="7" numLanes="1" speed="22.22" disallow="tram rail_urban rail rail_electric rail_fast ship" oneway="0"/>
    <type id="highway.raceway" priority="15" numLanes="2" speed="83.33" allow="vip" oneway="0"/>
    <type id="highway.residential" priority="3" numLanes="1" speed="13.89" disallow="tram rail_urban rail rail_electric rail_fast ship" oneway="0"/>
    <type id="highway.secondary" priority="11" numLanes="1" speed="27.78" disallow="tram rail_urban rail rail_electric rail_fast ship" oneway="0"/>
    <type id="highway.secondary_link" priority="6" numLanes="1" speed="22.22" disallow="tram rail_urban rail rail_electric rail_fast ship" oneway="0"/>
    <type id="highway.service" priority="1" numLanes="1" speed="5.56" allow="pedestrian delivery bicycle" oneway="0"/>
    <type id="highway.stairs" priority="1" numLanes="1" speed="1.39" allow="pedestrian" oneway="1" width="2.00"/>
    <type id="highway.step" priority="1" numLanes="1" speed="1.39" allow="pedestrian" oneway="1" width="2.00"/>
    <type id="highway.steps" priority="1" numLanes="1" speed="1.39" allow="pedestrian" oneway="1" width="2.00"/>
    <type id="highway.tertiary" priority="10" numLanes="1" speed="22.22" disallow="tram rail_urban rail rail_electric rail_fast ship" oneway="0"/>
    <type id="highway.tertiary_link" priority="5" numLanes="1" speed="22.22" disallow="tram rail_urban rail rail_electric rail_fast ship" oneway="0"/>
    <type id="highway.track" priority="1" numLanes="1" speed="5.56" allow="pedestrian motorcycle moped bicycle" oneway="0"/>
    <type id="highway.trunk" priority="13" numLanes="2" speed="27.78" disallow="pedestrian bicycle tram rail_urban rail rail_electric rail_fast ship" oneway="0"/>
    <type id="highway.trunk_link" priority="8" numLanes="1" speed="22.22" disallow="pedestrian bicycle tram rail_urban rail rail_electric rail_fast ship" oneway="0"/>
    <type id="highway.unclassified" priority="4" numLanes="1" speed="13.89" disallow="tram rail_urban rail rail_electric rail_fast ship" oneway="0"/>
    <type id="highway.unsurfaced" priority="1" numLanes="1" speed="8.33" disallow="tram rail_urban rail rail_electric rail_fast ship" oneway="0"/>
    <type id="railway.highspeed" priority="21" numLanes="1" speed="69.44" allow="rail_fast" oneway="1"/>
    <type id="railway.light_rail" priority="19" numLanes="1" speed="27.78" allow="rail_urban" oneway="1"/>
    <type id="railway.preserved" priority="16" numLanes="1" speed="27.78" allow="rail" oneway="1"/>
    <type id="railway.rail" priority="20" numLanes="1" speed="44.44" allow="rail" oneway="1"/>
    <type id="railway.subway" priority="18" numLanes="1" speed="27.78" allow="rail_urban" oneway="1"/>
    <type id="railway.tram" priority="17" numLanes="1" speed="13.89" allow="tram" oneway="1"/>

    <edge id=":10170832052_0" function="internal">
        <lane id=":10170832052_0_0" index="0" disallow="tram rail_urban rail rail_electric rail_fast ship" speed="13.41" length="8.21" shape="349.34,165.76 351.71,166.19 353.40,166.08 355.09,165.95 357.47,166.32"/>
        <lane id=":10170832052_0_1" index="1" disallow="tram rail_urban rail rail_electric rail_fast ship" speed="13.41" length="8.21" shape="348.51,168.85 350.88,169.28 352.57,169.17 354.27,169.04 356.65,169.41"/>
        <lane id=":10170832052_0_2" index="2" disallow="tram rail_urban rail rail_electric rail_fast ship" speed="13.41" length="8.21" shape="347.69,171.94 350.05,172.37 351.74,172.26 353.44,172.13 355.82,172.50"/>
        <lane id=":10170832052_0_3" index="3" disallow="tram rail_urban rail rail_electric rail_fast ship" speed="13.41" length="8.21" shape="347.69,171.94 349.92,172.86 351.33,173.81 352.74,174.74 354.99,175.59"/>
    </edge>
    <edge id=":1325213435_0" function="internal">
        <lane id=":1325213435_0_0" index="0" allow="pedestrian delivery bicycle" speed="5.56" length="7.90" shape="447.70,265.57 440.03,263.68"/>
    </edge>
    <edge id=":1325213435_1" function="internal">
        <lane id=":1325213435_1_0" index="0" allow="pedestrian delivery bicycle" speed="5.56" length="9.01" shape="447.70,265.57 445.74,264.65 444.55,263.13 444.14,261.00 444.50,258.27"/>
    </edge>
    <edge id=":1325213435_2" function="internal">
        <lane id=":1325213435_2_0" index="0" allow="pedestrian delivery bicycle" speed="3.65" length="4.67" shape="447.70,265.57 446.74,264.49 446.56,263.61 447.15,262.94 448.51,262.47"/>
    </edge>
    <edge id=":1325213435_3" function="internal">
        <lane id=":1325213435_3_0" index="0" allow="pedestrian delivery bicycle" speed="4.60" length="3.94" shape="447.61,259.04 447.39,260.38 447.47,261.40 447.84,262.10 448.51,262.47"/>
    </edge>
    <edge id=":1325213435_4" function="internal">
        <lane id=":1325213435_4_0" index="0" allow="pedestrian delivery bicycle" speed="5.56" length="10.11" shape="447.61,259.04 446.58,261.61 444.97,263.23 442.78,263.92 440.03,263.68"/>
    </edge>
    <edge id=":1325213435_5" function="internal">
        <lane id=":1325213435_5_0" index="0" allow="pedestrian delivery bicycle" speed="3.65" length="4.67" shape="447.61,259.04 446.55,260.01 445.67,260.21 444.99,259.63 444.50,258.27"/>
    </edge>
    <edge id=":1325213435_6" function="internal">
        <lane id=":1325213435_6_0" index="0" allow="pedestrian delivery bicycle" speed="5.05" length="4.99" shape="440.76,260.56 442.12,260.68 443.20,260.34 443.99,259.54 444.50,258.27"/>
    </edge>
    <edge id=":1325213435_7" function="internal">
        <lane id=":1325213435_7_0" index="0" allow="pedestrian delivery bicycle" speed="5.56" length="7.98" shape="440.76,260.56 448.51,262.47"/>
    </edge>
    <edge id=":1325213435_8" function="internal">
        <lane id=":1325213435_8_0" index="0" allow="pedestrian delivery bicycle" speed="3.65" length="4.67" shape="440.76,260.56 441.75,261.61 441.95,262.49 441.38,263.17 440.03,263.68"/>
    </edge>
    <edge id=":1325213437_0" function="internal">
        <lane id=":1325213437_0_0" index="0" allow="pedestrian delivery bicycle" speed="5.04" length="5.00" shape="455.64,267.63 454.28,267.48 453.20,267.80 452.39,268.59 451.87,269.86"/>
    </edge>
    <edge id=":1325213437_1" function="internal">
        <lane id=":1325213437_1_0" index="0" allow="pedestrian delivery bicycle" speed="5.56" length="8.01" shape="455.64,267.63 447.89,265.62"/>
    </edge>
    <edge id=":1325213437_2" function="internal">
        <lane id=":1325213437_2_0" index="0" allow="pedestrian delivery bicycle" speed="3.65" length="4.67" shape="455.64,267.63 454.68,266.55 454.49,265.68 455.08,265.00 456.44,264.53"/>
    </edge>
    <edge id=":1325213437_3" function="internal">
        <lane id=":1325213437_3_0" index="0" allow="pedestrian delivery bicycle" speed="5.56" length="7.99" shape="448.70,262.52 456.44,264.53"/>
    </edge>
    <edge id=":1325213437_4" function="internal">
        <lane id=":1325213437_4_0" index="0" allow="pedestrian delivery bicycle" speed="5.56" length="9.06" shape="448.70,262.52 450.68,263.45 451.86,264.98 452.26,267.12 451.87,269.86"/>
    </edge>
    <edge id=":1325213437_5" function="internal">
        <lane id=":1325213437_5_0" index="0" allow="pedestrian delivery bicycle" speed="3.65" length="4.67" shape="448.70,262.52 449.66,263.60 449.84,264.48 449.25,265.15 447.89,265.62"/>
    </edge>
    <edge id=":1325213437_6" function="internal">
        <lane id=":1325213437_6_0" index="0" allow="pedestrian delivery bicycle" speed="4.59" length="3.95" shape="448.77,269.06 449.01,267.72 448.94,266.70 448.56,266.00 447.89,265.62"/>
    </edge>
    <edge id=":1325213437_7" function="internal">
        <lane id=":1325213437_7_0" index="0" allow="pedestrian delivery bicycle" speed="5.56" length="10.16" shape="448.77,269.06 449.84,266.49 451.47,264.88 453.67,264.22 456.44,264.53"/>
    </edge>
    <edge id=":1325213437_8" function="internal">
        <lane id=":1325213437_8_0" index="0" allow="pedestrian delivery bicycle" speed="3.65" length="4.67" shape="448.77,269.06 449.84,268.10 450.72,267.91 451.39,268.50 451.87,269.86"/>
    </edge>
    <edge id=":1325213440_0" function="internal">
        <lane id=":1325213440_0_0" index="0" allow="pedestrian delivery bicycle" speed="5.02" length="5.03" shape="398.45,253.86 397.07,253.74 396.00,254.09 395.22,254.92 394.75,256.21"/>
    </edge>
    <edge id=":1325213440_1" function="internal">
        <lane id=":1325213440_1_0" index="0" allow="pedestrian delivery bicycle" speed="5.56" length="10.23" shape="398.45,253.86 395.83,252.84 394.16,251.23 393.45,249.04 393.70,246.26"/>
    </edge>
    <edge id=":1325213440_2" function="internal">
        <lane id=":1325213440_2_0" index="0" allow="pedestrian delivery bicycle" speed="3.65" length="4.67" shape="398.45,253.86 397.47,252.81 397.26,251.94 397.83,251.25 399.19,250.75"/>
    </edge>
    <edge id=":1325213440_3" function="internal">
        <lane id=":1325213440_3_0" index="0" allow="pedestrian delivery bicycle" speed="5.06" length="5.06" shape="396.82,247.00 396.69,248.37 397.05,249.45 397.88,250.24 399.19,250.75"/>
    </edge>
    <edge id=":1325213440_4" function="internal">
        <lane id=":1325213440_4_0" index="0" allow="pedestrian delivery bicycle" speed="5.56" length="9.44" shape="396.82,247.00 394.75,256.21"/>
    </edge>
    <edge id=":1325213440_5" function="internal">
        <lane id=":1325213440_5_0" index="0" allow="pedestrian delivery bicycle" speed="3.65" length="4.67" shape="396.82,247.00 395.76,247.98 394.89,248.19 394.20,247.61 393.70,246.26"/>
    </edge>
    <edge id=":1325213440_6" function="internal">
        <lane id=":1325213440_6_0" index="0" allow="pedestrian delivery bicycle" speed="5.56" length="9.52" shape="391.62,255.55 393.70,246.26"/>
    </edge>
    <edge id=":1325213440_7" function="internal">
        <lane id=":1325213440_7_0" index="0" allow="pedestrian delivery bicycle" speed="5.56" length="10.28" shape="391.62,255.55 392.59,252.90 394.17,251.21 396.37,250.50 399.19,250.75"/>
    </edge>
    <edge id=":1325213440_8" function="internal">
        <lane id=":1325213440_8_0" index="0" allow="pedestrian delivery bicycle" speed="3.65" length="4.67" shape="391.62,255.55 392.65,254.54 393.51,254.32 394.21,254.87 394.75,256.21"/>
    </edge>
    <edge id=":1325213443_0" function="internal">
        <lane id=":1325213443_0_0" index="0" allow="pedestrian delivery bicycle" speed="3.65" length="4.67" shape="492.87,338.69 494.22,339.21 494.78,339.90 494.56,340.77 493.57,341.81"/>
    </edge>
    <edge id=":1325213456_0" function="internal">
        <lane id=":1325213456_0_0" index="0" allow="pedestrian delivery bicycle" speed="5.56" length="9.40" shape="437.50,337.92 428.42,335.48"/>
    </edge>
    <edge id=":1325213456_1" function="internal">
        <lane id=":1325213456_1_0" index="0" allow="pedestrian delivery bicycle" speed="5.56" length="10.16" shape="437.50,337.92 434.96,336.82 433.37,335.17 432.73,332.95 433.04,330.18"/>
    </edge>
    <edge id=":1325213456_2" function="internal">
        <lane id=":1325213456_2_0" index="0" allow="pedestrian delivery bicycle" speed="3.65" length="4.67" shape="437.50,337.92 436.55,336.83 436.37,335.96 436.97,335.29 438.33,334.82"/>
    </edge>
    <edge id=":1325213456_3" function="internal">
        <lane id=":1325213456_3_0" index="0" allow="pedestrian delivery bicycle" speed="5.07" length="5.04" shape="436.14,330.97 435.98,332.36 436.30,333.46 437.08,334.28 438.33,334.82"/>
    </edge>
    <edge id=":1325213456_4" function="internal">
        <lane id=":1325213456_4_0" index="0" allow="pedestrian delivery bicycle" speed="5.56" length="10.21" shape="436.14,330.97 435.06,333.56 433.42,335.18 431.21,335.81 428.42,335.48"/>
    </edge>
    <edge id=":1325213456_5" function="internal">
        <lane id=":1325213456_5_0" index="0" allow="pedestrian delivery bicycle" speed="3.65" length="4.67" shape="436.14,330.97 435.07,331.94 434.19,332.12 433.52,331.54 433.04,330.18"/>
    </edge>
    <edge id=":1325213456_6" function="internal">
        <lane id=":1325213456_6_0" index="0" allow="pedestrian delivery bicycle" speed="5.03" length="5.01" shape="429.25,332.39 430.62,332.55 431.71,332.24 432.51,331.45 433.04,330.18"/>
    </edge>
    <edge id=":1325213456_7" function="internal">
        <lane id=":1325213456_7_0" index="0" allow="pedestrian delivery bicycle" speed="5.56" length="9.40" shape="429.25,332.39 438.33,334.82"/>
    </edge>
    <edge id=":1325213456_8" function="internal">
        <lane id=":1325213456_8_0" index="0" allow="pedestrian delivery bicycle" speed="3.65" length="4.67" shape="429.25,332.39 430.20,333.47 430.38,334.35 429.79,335.02 428.42,335.48"/>
    </edge>
    <edge id=":1325213473_0" function="internal">
        <lane id=":1325213473_0_0" index="0" allow="pedestrian delivery bicycle" speed="4.86" length="4.65" shape="461.06,217.78 459.70,217.60 458.63,217.83 457.87,218.49 457.41,219.57"/>
    </edge>
    <edge id=":1325213473_1" function="internal">
        <lane id=":1325213473_1_0" index="0" disallow="tram rail_urban rail rail_electric rail_fast ship" speed="13.41" length="9.43" shape="461.06,217.78 451.96,215.40"/>
        <lane id=":1325213473_1_1" index="1" disallow="tram rail_urban rail rail_electric rail_fast ship" speed="13.41" length="9.43" shape="461.88,214.69 452.76,212.30"/>
        <lane id=":1325213473_1_2" index="2" disallow="tram rail_urban rail rail_electric rail_fast ship" speed="13.41" length="9.43" shape="462.70,211.60 453.57,209.21"/>
        <lane id=":1325213473_1_3" index="3" disallow="tram rail_urban rail rail_electric rail_fast ship" speed="13.41" length="9.43" shape="463.52,208.50 454.37,206.11"/>
    </edge>
    <edge id=":1325213473_5" function="internal">
        <lane id=":1325213473_5_0" index="0" allow="pedestrian delivery bicycle" speed="4.93" length="4.69" shape="454.30,218.81 454.39,217.61 454.03,216.64 453.22,215.90 451.96,215.40"/>
        <lane id=":1325213473_5_1" index="1" allow="pedestrian delivery bicycle" speed="5.98" length="7.39" shape="454.30,218.81 454.73,216.25 454.61,214.31 453.96,213.00 452.76,212.30"/>
    </edge>
    <edge id=":1325213473_7" function="internal">
        <lane id=":1325213473_7_0" index="0" allow="pedestrian delivery bicycle" speed="3.65" length="4.67" shape="454.30,218.81 455.36,217.83 456.23,217.63 456.91,218.21 457.41,219.57"/>
    </edge>
    <edge id=":1376995645_0" function="internal">
        <lane id=":1376995645_0_0" index="0" allow="pedestrian bicycle" speed="5.56" length="5.24" width="1.00" shape="247.40,511.73 246.78,506.53"/>
    </edge>
    <edge id=":1376995645_1" function="internal">
        <lane id=":1376995645_1_0" index="0" allow="pedestrian bicycle" speed="2.04" length="1.46" width="1.00" shape="247.40,511.73 247.61,511.33 247.85,511.18 248.11,511.28 248.40,511.62"/>
    </edge>
    <edge id=":1376995645_2" function="internal">
        <lane id=":1376995645_2_0" index="0" allow="pedestrian bicycle" speed="5.56" length="5.25" width="1.00" shape="247.78,506.41 248.40,511.62"/>
    </edge>
    <edge id=":1376995645_3" function="internal">
        <lane id=":1376995645_3_0" index="0" allow="pedestrian bicycle" speed="2.04" length="1.46" width="1.00" shape="247.78,506.41 247.58,506.81 247.34,506.97 247.08,506.87 246.78,506.53"/>
    </edge>
    <edge id=":1376995679_0" function="internal">
        <lane id=":1376995679_0_0" index="0" allow="pedestrian bicycle" speed="4.37" length="3.08" width="1.00" shape="217.58,394.52 218.68,397.39"/>
    </edge>
    <edge id=":1376995679_1" function="internal">
        <lane id=":1376995679_1_0" index="0" disallow="tram rail_urban rail rail_electric rail_fast ship" speed="13.89" length="1.91" shape="217.58,394.52 215.68,394.70"/>
    </edge>
    <edge id=":1376995679_2" function="internal">
        <lane id=":1376995679_2_0" index="0" allow="pedestrian bicycle" speed="3.22" length="1.61" width="1.00" shape="217.58,394.52 218.17,393.02"/>
    </edge>
    <edge id=":1376995679_3" function="internal">
        <lane id=":1376995679_3_0" index="0" allow="pedestrian bicycle" speed="5.56" length="4.28" width="1.00" shape="219.16,393.14 218.68,397.39"/>
    </edge>
    <edge id=":1376995679_4" function="internal">
        <lane id=":1376995679_4_0" index="0" allow="pedestrian bicycle" speed="4.64" length="1.15" width="1.00" shape="219.16,393.14 218.88,393.72 218.46,394.01"/>
    </edge>
    <edge id=":1376995679_5" function="internal">
        <lane id=":1376995679_5_0" index="0" allow="pedestrian bicycle" speed="2.04" length="1.23" width="1.00" shape="219.16,393.14 218.87,393.48 218.60,393.58 218.37,393.42 218.27,393.22"/>
    </edge>
    <edge id=":1376995679_9" function="internal">
        <lane id=":1376995679_9_0" index="0" allow="pedestrian bicycle" speed="4.64" length="2.89" width="1.00" shape="218.46,394.01 218.21,394.17 217.14,394.50 215.68,394.70"/>
    </edge>
    <edge id=":1376995679_10" function="internal">
        <lane id=":1376995679_10_0" index="0" allow="pedestrian bicycle" speed="2.04" length="0.23" width="1.00" shape="218.27,393.22 218.17,393.02"/>
    </edge>
    <edge id=":1376995679_6" function="internal">
        <lane id=":1376995679_6_0" index="0" allow="pedestrian bicycle" speed="3.97" length="3.90" width="1.00" shape="217.69,397.29 217.67,396.08 217.33,395.25 216.67,394.79 215.68,394.70"/>
    </edge>
    <edge id=":1376995679_7" function="internal">
        <lane id=":1376995679_7_0" index="0" allow="pedestrian bicycle" speed="5.56" length="4.30" width="1.00" shape="217.69,397.29 218.17,393.02"/>
    </edge>
    <edge id=":1376995679_8" function="internal">
        <lane id=":1376995679_8_0" index="0" allow="pedestrian bicycle" speed="2.04" length="1.25" width="1.00" shape="217.69,397.29 217.98,396.94 218.24,396.84 218.47,396.99 218.59,397.21"/>
    </edge>
    <edge id=":1376995679_11" function="internal">
        <lane id=":1376995679_11_0" index="0" allow="pedestrian bicycle" speed="2.04" length="0.21" width="1.00" shape="218.59,397.21 218.68,397.39"/>
    </edge>
    <edge id=":1376995680_0" function="internal">
        <lane id=":1376995680_0_0" index="0" allow="pedestrian bicycle" speed="5.56" length="5.90" width="1.00" shape="234.91,436.37 233.66,430.61"/>
    </edge>
    <edge id=":1376995680_1" function="internal">
        <lane id=":1376995680_1_0" index="0" allow="pedestrian bicycle" speed="2.04" length="1.46" width="1.00" shape="234.91,436.37 235.10,435.96 235.32,435.80 235.59,435.88 235.90,436.21"/>
    </edge>
    <edge id=":1376995680_2" function="internal">
        <lane id=":1376995680_2_0" index="0" allow="pedestrian bicycle" speed="5.56" length="5.97" width="1.00" shape="234.63,430.37 235.90,436.21"/>
    </edge>
    <edge id=":1376995680_3" function="internal">
        <lane id=":1376995680_3_0" index="0" allow="pedestrian bicycle" speed="2.04" length="1.46" width="1.00" shape="234.63,430.37 234.48,430.80 234.26,430.98 233.99,430.92 233.66,430.61"/>
    </edge>
    <edge id=":1376995714_0" function="internal">
        <lane id=":1376995714_0_0" index="0" allow="pedestrian bicycle" speed="5.56" length="7.16" width="1.00" shape="240.10,464.57 239.52,462.52 239.12,461.12 238.78,459.71 238.40,457.62"/>
    </edge>
    <edge id=":1376995714_1" function="internal">
        <lane id=":1376995714_1_0" index="0" allow="pedestrian bicycle" speed="2.04" length="1.23" width="1.00" shape="240.10,464.57 240.24,464.14 240.45,463.95 240.72,464.01 240.89,464.16"/>
    </edge>
    <edge id=":1376995714_4" function="internal">
        <lane id=":1376995714_4_0" index="0" allow="pedestrian bicycle" speed="2.04" length="0.23" width="1.00" shape="240.89,464.16 241.06,464.31"/>
    </edge>
    <edge id=":1376995714_2" function="internal">
        <lane id=":1376995714_2_0" index="0" allow="pedestrian bicycle" speed="5.56" length="7.06" width="1.00" shape="239.39,457.46 239.76,459.52 240.09,460.91 240.49,462.29 241.06,464.31"/>
    </edge>
    <edge id=":1376995714_3" function="internal">
        <lane id=":1376995714_3_0" index="0" allow="pedestrian bicycle" speed="2.04" length="1.23" width="1.00" shape="239.39,457.46 239.20,457.87 238.98,458.03 238.71,457.95 238.56,457.79"/>
    </edge>
    <edge id=":1376995714_5" function="internal">
        <lane id=":1376995714_5_0" index="0" allow="pedestrian bicycle" speed="2.04" length="0.23" width="1.00" shape="238.56,457.79 238.40,457.62"/>
    </edge>
    <edge id=":1378905426_0" function="internal">
        <lane id=":1378905426_0_0" index="0" allow="private emergency authority army vip passenger hov taxi bus coach delivery truck trailer motorcycle evehicle custom1 custom2" speed="24.59" length="8.21" shape="286.64,467.71 286.77,465.32 286.47,463.67 286.17,462.01 286.27,459.62"/>
        <lane id=":1378905426_0_1" index="1" allow="private emergency authority army vip passenger hov taxi bus coach delivery truck trailer motorcycle evehicle custom1 custom2" speed="24.59" length="8.21" shape="289.81,468.21 289.93,465.81 289.63,464.15 289.33,462.49 289.44,460.09"/>
        <lane id=":1378905426_0_2" index="2" allow="private emergency authority army vip passenger hov taxi bus coach delivery truck trailer motorcycle evehicle custom1 custom2" speed="24.59" length="8.21" shape="292.97,468.71 293.09,466.31 292.80,464.64 292.49,462.97 292.60,460.57"/>
        <lane id=":1378905426_0_3" index="3" allow="private emergency authority army vip passenger hov taxi bus coach delivery truck trailer motorcycle evehicle custom1 custom2" speed="24.59" length="8.21" shape="296.13,469.21 296.25,466.80 295.96,465.13 295.66,463.46 295.77,461.04"/>
        <lane id=":1378905426_0_4" index="4" allow="private emergency authority army vip passenger hov taxi bus coach delivery truck trailer motorcycle evehicle custom1 custom2" speed="24.59" length="8.21" shape="299.29,469.71 299.42,467.29 299.12,465.62 298.82,463.94 298.93,461.52"/>
        <lane id=":1378905426_0_5" index="5" allow="private emergency authority army vip passenger hov taxi bus coach delivery truck trailer motorcycle evehicle custom1 custom2" speed="24.59" length="8.21" shape="302.45,470.21 302.58,467.78 302.28,466.10 301.98,464.42 302.10,461.99"/>
    </edge>
    <edge id=":1378905427_0" function="internal">
        <lane id=":1378905427_0_0" index="0" allow="private emergency authority army vip passenger hov taxi bus coach delivery truck trailer motorcycle evehicle custom1 custom2" speed="24.59" length="0.30" shape="252.29,647.69 252.35,647.39"/>
        <lane id=":1378905427_0_1" index="1" allow="private emergency authority army vip passenger hov taxi bus coach delivery truck trailer motorcycle evehicle custom1 custom2" speed="24.59" length="0.30" shape="255.44,648.25 255.50,647.96"/>
        <lane id=":1378905427_0_2" index="2" allow="private emergency authority army vip passenger hov taxi bus coach delivery truck trailer motorcycle evehicle custom1 custom2" speed="24.59" length="0.30" shape="258.59,648.81 258.65,648.52"/>
        <lane id=":1378905427_0_3" index="3" allow="private emergency authority army vip passenger hov taxi bus coach delivery truck trailer motorcycle evehicle custom1 custom2" speed="24.59" length="0.30" shape="261.74,649.38 261.80,649.08"/>
        <lane id=":1378905427_0_4" index="4" allow="private emergency authority army vip passenger hov taxi bus coach delivery truck trailer motorcycle evehicle custom1 custom2" speed="24.59" length="0.30" shape="264.89,649.94 264.95,649.65"/>
        <lane id=":1378905427_0_5" index="5" allow="private emergency authority army vip passenger hov taxi bus coach delivery truck trailer motorcycle evehicle custom1 custom2" speed="24.59" length="0.30" shape="268.04,650.51 268.10,650.21"/>
        <lane id=":1378905427_0_6" index="6" allow="private emergency authority army vip passenger hov taxi bus coach delivery truck trailer motorcycle evehicle custom1 custom2" speed="24.59" length="0.30" shape="271.19,651.07 271.25,650.77"/>
    </edge>
    <edge id=":1378905428_0" function="internal">
        <lane id=":1378905428_0_0" index="0" allow="private emergency authority army vip passenger hov taxi bus coach delivery truck trailer motorcycle evehicle custom1 custom2" speed="24.59" length="8.20" shape="239.91,932.56 239.72,934.97 239.97,936.66 240.22,938.34 240.03,940.75"/>
        <lane id=":1378905428_0_1" index="1" allow="private emergency authority army vip passenger hov taxi bus coach delivery truck trailer motorcycle evehicle custom1 custom2" speed="24.59" length="8.20" shape="236.76,931.99 236.58,934.40 236.83,936.08 237.08,937.75 236.88,940.16"/>
        <lane id=":1378905428_0_2" index="2" allow="private emergency authority army vip passenger hov taxi bus coach delivery truck trailer motorcycle evehicle custom1 custom2" speed="24.59" length="8.20" shape="233.61,931.42 233.43,933.82 233.68,935.50 233.93,937.17 233.74,939.57"/>
        <lane id=":1378905428_0_3" index="3" allow="private emergency authority army vip passenger hov taxi bus coach delivery truck trailer motorcycle evehicle custom1 custom2" speed="24.59" length="8.20" shape="230.46,930.85 230.28,933.25 230.53,934.92 230.78,936.59 230.59,938.98"/>
        <lane id=":1378905428_0_4" index="4" allow="private emergency authority army vip passenger hov taxi bus coach delivery truck trailer motorcycle evehicle custom1 custom2" speed="24.59" length="8.20" shape="227.31,930.28 227.13,932.67 227.39,934.34 227.64,936.01 227.44,938.40"/>
    </edge>
    <edge id=":1515973502_0" function="internal">
        <lane id=":1515973502_0_0" index="0" allow="pedestrian delivery bicycle" speed="3.65" length="4.67" shape="364.19,381.30 363.26,380.20 363.09,379.32 363.70,378.66 365.07,378.22"/>
    </edge>
    <edge id=":1515973552_0" function="internal">
        <lane id=":1515973552_0_0" index="0" allow="pedestrian delivery bicycle" speed="5.13" length="5.14" shape="402.15,427.74 400.71,427.62 399.57,427.97 398.75,428.77 398.24,430.03"/>
    </edge>
    <edge id=":1515973552_1" function="internal">
        <lane id=":1515973552_1_0" index="0" allow="pedestrian delivery bicycle" speed="5.56" length="10.38" shape="402.15,427.74 399.47,426.74 397.79,425.13 397.12,422.90 397.45,420.06"/>
    </edge>
    <edge id=":1515973552_2" function="internal">
        <lane id=":1515973552_2_0" index="0" allow="pedestrian delivery bicycle" speed="3.65" length="4.67" shape="402.15,427.74 401.15,426.71 400.93,425.84 401.49,425.14 402.83,424.61"/>
    </edge>
    <edge id=":1515973552_3" function="internal">
        <lane id=":1515973552_3_0" index="0" allow="pedestrian delivery bicycle" speed="4.99" length="5.05" shape="400.54,420.87 400.38,422.26 400.71,423.34 401.53,424.13 402.83,424.61"/>
    </edge>
    <edge id=":1515973552_4" function="internal">