<?xml version="1.0" encoding="UTF-8"?>

<!-- generated on 2022-11-29 12:58:32 by Eclipse SUMO netedit Version 1.15.0
-->

<additional xmlns:xsi="http://www.w3.org/2001/XMLSchema-instance" xsi:noNamespaceSchemaLocation="http://sumo.dlr.de/xsd/additional_file.xsd">
    <!-- Detectors -->
    <inductionLoop id="e1_0" lane="powell_on_ramp_0" pos="110.28" period="300.00" file="output/inducation_loop.xml"/>
    <inductionLoop id="main_lane_1" lane="i80_weaving_n_5" pos="4.50" period="300.00" file="output/inducation_loop.xml"/>
    <inductionLoop id="main_lane_2" lane="i80_weaving_n_4" pos="4.50" period="300.00" file="output/inducation_loop.xml"/>
    <inductionLoop id="main_lane_3" lane="i80_weaving_n_3" pos="4.50" period="300.00" file="output/inducation_loop.xml"/>
    <inductionLoop id="main_lane_4" lane="i80_weaving_n_2" pos="4.50" period="300.00" file="output/inducation_loop.xml"/>
    <inductionLoop id="main_lane_5" lane="i80_weaving_n_1" pos="4.50" period="300.00" file="output/inducation_loop.xml"/>
    <inductionLoop id="main_lane_6" lane="i80_weaving_n_0" pos="4.50" period="300.00" file="output/inducation_loop.xml"/>
</additional>
