<?xml version="1.0" encoding="UTF-8"?>

<!-- generated on 2022-11-29 12:58:32 by Eclipse SUMO netedit Version 1.15.0
-->

<additional xmlns:xsi="http://www.w3.org/2001/XMLSchema-instance" xsi:noNamespaceSchemaLocation="http://sumo.dlr.de/xsd/additional_file.xsd">
    <!-- Detectors -->
    <inductionLoop id="e1_0" lane="powell_0" pos="196.28" period="300.00" file="output/inducation_loop.xml"/>
    <inductionLoop id="main_lane_1" lane="weaving_5" pos="4.50" period="300.00" file="output/inducation_loop.xml"/>
    <inductionLoop id="main_lane_2" lane="weaving_4" pos="4.50" period="300.00" file="output/inducation_loop.xml"/>
    <inductionLoop id="main_lane_3" lane="weaving_3" pos="4.50" period="300.00" file="output/inducation_loop.xml"/>
    <inductionLoop id="main_lane_4" lane="weaving_2" pos="4.50" period="300.00" file="output/inducation_loop.xml"/>
    <inductionLoop id="main_lane_5" lane="weaving_1" pos="4.50" period="300.00" file="output/inducation_loop.xml"/>
    <inductionLoop id="main_lane_6" lane="weaving_0" pos="4.50" period="300.00" file="output/inducation_loop.xml"/>
    <!-- Wires -->
    <tractionSubstation id="tr_0" pos="680.98,999.83" voltage="600.00" currentLimit="400.00"/>
    <tractionSubstation id="tr_2" pos="118.42,1555.54" voltage="600.00" currentLimit="400.00"/>
</additional>
