<?xml version="1.0" encoding="UTF-8"?>

<!-- generated on 2022-11-29 13:21:23 by Eclipse SUMO netedit Version 1.15.0
<configuration xmlns:xsi="http://www.w3.org/2001/XMLSchema-instance" xsi:noNamespaceSchemaLocation="http://sumo.dlr.de/xsd/netconvertConfiguration.xsd">

    <input>
        <sumo-net-file value="/Users/chocodave/Desktop/fall_22/ce299/ce299_fall2022/simulation/i80/assets/i80.net.xml"/>
    </input>

    <output>
        <output-file value="/Users/chocodave/Desktop/fall_22/ce299/ce299_fall2022/simulation/i80/assets/i80.net.xml"/>
    </output>

    <processing>
        <geometry.min-radius.fix.railways value="false"/>
        <geometry.max-grade.fix value="false"/>
        <offset.disable-normalization value="true"/>
        <lefthand value="0"/>
    </processing>

    <junctions>
        <no-turnarounds value="true"/>
        <junctions.corner-detail value="5"/>
        <junctions.limit-turn-speed value="5.50"/>
        <rectangular-lane-cut value="0"/>
    </junctions>

    <pedestrian>
        <walkingareas value="0"/>
    </pedestrian>

</configuration>
-->

<net version="1.9" junctionCornerDetail="5" limitTurnSpeed="5.50" xmlns:xsi="http://www.w3.org/2001/XMLSchema-instance" xsi:noNamespaceSchemaLocation="http://sumo.dlr.de/xsd/net_file.xsd">

    <location netOffset="-561541.56,-4187906.01" convBoundary="79.06,110.91,386.63,1740.29" origBoundary="-122.300587,37.836478,-122.293747,37.852188" projParameter="+proj=utm +zone=10 +ellps=WGS84 +datum=WGS84 +units=m +no_defs"/>

    <type id="highway.bridleway" priority="1" numLanes="1" speed="2.78" allow="pedestrian" oneway="1" width="2.00"/>
    <type id="highway.bus_guideway" priority="1" numLanes="1" speed="27.78" allow="bus" oneway="1"/>
    <type id="highway.cycleway" priority="1" numLanes="1" speed="5.56" allow="bicycle" oneway="0" width="1.00"/>
    <type id="highway.footway" priority="1" numLanes="1" speed="2.78" allow="pedestrian" oneway="1" width="2.00"/>
    <type id="highway.ford" priority="1" numLanes="1" speed="2.78" allow="army" oneway="0"/>
    <type id="highway.living_street" priority="2" numLanes="1" speed="2.78" disallow="tram rail_urban rail rail_electric rail_fast ship" oneway="0"/>
    <type id="highway.motorway" priority="14" numLanes="2" speed="39.44" allow="private emergency authority army vip passenger hov taxi bus coach delivery truck trailer motorcycle evehicle custom1 custom2" oneway="1"/>
    <type id="highway.motorway_link" priority="9" numLanes="1" speed="22.22" allow="private emergency authority army vip passenger hov taxi bus coach delivery truck trailer motorcycle evehicle custom1 custom2" oneway="1"/>
    <type id="highway.path" priority="1" numLanes="1" speed="5.56" allow="pedestrian bicycle" oneway="0" width="2.00"/>
    <type id="highway.pedestrian" priority="1" numLanes="1" speed="2.78" allow="pedestrian" oneway="1" width="2.00"/>
    <type id="highway.primary" priority="12" numLanes="2" speed="27.78" disallow="tram rail_urban rail rail_electric rail_fast ship" oneway="0"/>
    <type id="highway.primary_link" priority="7" numLanes="1" speed="22.22" disallow="tram rail_urban rail rail_electric rail_fast ship" oneway="0"/>
    <type id="highway.raceway" priority="15" numLanes="2" speed="83.33" allow="vip" oneway="0"/>
    <type id="highway.residential" priority="3" numLanes="1" speed="13.89" disallow="tram rail_urban rail rail_electric rail_fast ship" oneway="0"/>
    <type id="highway.secondary" priority="11" numLanes="1" speed="27.78" disallow="tram rail_urban rail rail_electric rail_fast ship" oneway="0"/>
    <type id="highway.secondary_link" priority="6" numLanes="1" speed="22.22" disallow="tram rail_urban rail rail_electric rail_fast ship" oneway="0"/>
    <type id="highway.service" priority="1" numLanes="1" speed="5.56" allow="pedestrian delivery bicycle" oneway="0"/>
    <type id="highway.stairs" priority="1" numLanes="1" speed="1.39" allow="pedestrian" oneway="1" width="2.00"/>
    <type id="highway.step" priority="1" numLanes="1" speed="1.39" allow="pedestrian" oneway="1" width="2.00"/>
    <type id="highway.steps" priority="1" numLanes="1" speed="1.39" allow="pedestrian" oneway="1" width="2.00"/>
    <type id="highway.tertiary" priority="10" numLanes="1" speed="22.22" disallow="tram rail_urban rail rail_electric rail_fast ship" oneway="0"/>
    <type id="highway.tertiary_link" priority="5" numLanes="1" speed="22.22" disallow="tram rail_urban rail rail_electric rail_fast ship" oneway="0"/>
    <type id="highway.track" priority="1" numLanes="1" speed="5.56" allow="pedestrian motorcycle moped bicycle" oneway="0"/>
    <type id="highway.trunk" priority="13" numLanes="2" speed="27.78" disallow="pedestrian bicycle tram rail_urban rail rail_electric rail_fast ship" oneway="0"/>
    <type id="highway.trunk_link" priority="8" numLanes="1" speed="22.22" disallow="pedestrian bicycle tram rail_urban rail rail_electric rail_fast ship" oneway="0"/>
    <type id="highway.unclassified" priority="4" numLanes="1" speed="13.89" disallow="tram rail_urban rail rail_electric rail_fast ship" oneway="0"/>
    <type id="highway.unsurfaced" priority="1" numLanes="1" speed="8.33" disallow="tram rail_urban rail rail_electric rail_fast ship" oneway="0"/>
    <type id="railway.highspeed" priority="21" numLanes="1" speed="69.44" allow="rail_fast" oneway="1"/>
    <type id="railway.light_rail" priority="19" numLanes="1" speed="27.78" allow="rail_urban" oneway="1"/>
    <type id="railway.preserved" priority="16" numLanes="1" speed="27.78" allow="rail" oneway="1"/>
    <type id="railway.rail" priority="20" numLanes="1" speed="44.44" allow="rail" oneway="1"/>
    <type id="railway.subway" priority="18" numLanes="1" speed="27.78" allow="rail_urban" oneway="1"/>
    <type id="railway.tram" priority="17" numLanes="1" speed="13.89" allow="tram" oneway="1"/>

    <edge id=":76008747_0" function="internal">
        <lane id=":76008747_0_0" index="0" allow="private emergency authority army vip passenger hov taxi bus coach delivery truck trailer motorcycle evehicle custom1 custom2" speed="19.24" length="8.16" shape="367.24,287.15 367.03,289.54 367.26,291.22 367.48,292.89 367.22,295.27"/>
    </edge>
    <edge id=":load_end_0" function="internal">
        <lane id=":load_end_0_0" index="0" allow="private emergency authority army vip passenger hov taxi bus coach delivery truck trailer motorcycle evehicle custom1 custom2" speed="24.59" length="0.30" shape="361.34,232.70 361.30,232.96"/>
        <lane id=":load_end_0_1" index="1" allow="private emergency authority army vip passenger hov taxi bus coach delivery truck trailer motorcycle evehicle custom1 custom2" speed="24.59" length="0.30" shape="358.18,232.20 358.14,232.47"/>
        <lane id=":load_end_0_2" index="2" allow="private emergency authority army vip passenger hov taxi bus coach delivery truck trailer motorcycle evehicle custom1 custom2" speed="24.59" length="0.30" shape="355.02,231.69 354.98,231.98"/>
        <lane id=":load_end_0_3" index="3" allow="private emergency authority army vip passenger hov taxi bus coach delivery truck trailer motorcycle evehicle custom1 custom2" speed="24.59" length="0.30" shape="351.86,231.19 351.82,231.49"/>
        <lane id=":load_end_0_4" index="4" allow="private emergency authority army vip passenger hov taxi bus coach delivery truck trailer motorcycle evehicle custom1 custom2" speed="24.59" length="0.30" shape="348.70,230.69 348.65,231.00"/>
        <lane id=":load_end_0_5" index="5" allow="private emergency authority army vip passenger hov taxi bus coach delivery truck trailer motorcycle evehicle custom1 custom2" speed="24.59" length="0.30" shape="345.54,230.18 345.49,230.52"/>
    </edge>
    <edge id=":merge_off_0" function="internal">
        <lane id=":merge_off_0_0" index="0" allow="private emergency authority army vip passenger hov taxi bus coach delivery truck trailer motorcycle evehicle custom1 custom2" speed="23.41" length="34.54" shape="251.49,885.39 249.84,897.21 249.27,907.08 249.23,914.70 249.17,919.80"/>
    </edge>
    <edge id=":merge_off_1" function="internal">
        <lane id=":merge_off_1_0" index="0" allow="private emergency authority army vip passenger hov taxi bus coach delivery truck trailer motorcycle evehicle custom1 custom2" speed="24.59" length="34.55" shape="251.49,885.39 245.55,919.39"/>
        <lane id=":merge_off_1_1" index="1" allow="private emergency authority army vip passenger hov taxi bus coach delivery truck trailer motorcycle evehicle custom1 custom2" speed="24.59" length="34.55" shape="248.34,884.80 242.40,918.82"/>
        <lane id=":merge_off_1_2" index="2" allow="private emergency authority army vip passenger hov taxi bus coach delivery truck trailer motorcycle evehicle custom1 custom2" speed="24.59" length="34.55" shape="245.20,884.22 239.25,918.25"/>
        <lane id=":merge_off_1_3" index="3" allow="private emergency authority army vip passenger hov taxi bus coach delivery truck trailer motorcycle evehicle custom1 custom2" speed="24.59" length="34.55" shape="242.05,883.63 236.10,917.68"/>
        <lane id=":merge_off_1_4" index="4" allow="private emergency authority army vip passenger hov taxi bus coach delivery truck trailer motorcycle evehicle custom1 custom2" speed="24.59" length="34.55" shape="238.91,883.05 232.96,917.10"/>
        <lane id=":merge_off_1_5" index="5" allow="private emergency authority army vip passenger hov taxi bus coach delivery truck trailer motorcycle evehicle custom1 custom2" speed="24.59" length="34.55" shape="235.76,882.46 229.81,916.53"/>
    </edge>
    <edge id=":merge_on_0" function="internal">
        <lane id=":merge_on_0_0" index="0" allow="private emergency authority army vip passenger hov taxi bus coach delivery truck trailer motorcycle evehicle custom1 custom2" speed="24.59" length="25.54" shape="325.98,491.08 324.57,495.17 322.70,500.42 320.70,507.13 318.92,515.59"/>
    </edge>
    <edge id=":merge_on_1" function="internal">
        <lane id=":merge_on_1_0" index="0" allow="private emergency authority army vip passenger hov taxi bus coach delivery truck trailer motorcycle evehicle custom1 custom2" speed="24.59" length="25.54" shape="322.35,490.23 318.92,515.59"/>
        <lane id=":merge_on_1_1" index="1" allow="private emergency authority army vip passenger hov taxi bus coach delivery truck trailer motorcycle evehicle custom1 custom2" speed="24.59" length="25.54" shape="319.19,489.73 315.76,515.07"/>
        <lane id=":merge_on_1_2" index="2" allow="private emergency authority army vip passenger hov taxi bus coach delivery truck trailer motorcycle evehicle custom1 custom2" speed="24.59" length="25.54" shape="316.03,489.23 312.60,514.55"/>
        <lane id=":merge_on_1_3" index="3" allow="private emergency authority army vip passenger hov taxi bus coach delivery truck trailer motorcycle evehicle custom1 custom2" speed="24.59" length="25.54" shape="312.87,488.72 309.45,514.02"/>
        <lane id=":merge_on_1_4" index="4" allow="private emergency authority army vip passenger hov taxi bus coach delivery truck trailer motorcycle evehicle custom1 custom2" speed="24.59" length="25.54" shape="309.71,488.22 306.29,513.50"/>
        <lane id=":merge_on_1_5" index="5" allow="private emergency authority army vip passenger hov taxi bus coach delivery truck trailer motorcycle evehicle custom1 custom2" speed="24.59" length="25.54" shape="306.55,487.72 303.13,512.98"/>
    </edge>
    <edge id=":shrink_0" function="internal">
        <lane id=":shrink_0_0" index="0" allow="private emergency authority army vip passenger hov taxi bus coach delivery truck trailer motorcycle evehicle custom1 custom2" speed="24.59" length="8.20" shape="239.91,932.56 239.72,934.97 239.97,936.66 240.22,938.34 240.03,940.75"/>
        <lane id=":shrink_0_1" index="1" allow="private emergency authority army vip passenger hov taxi bus coach delivery truck trailer motorcycle evehicle custom1 custom2" speed="24.59" length="8.20" shape="236.76,931.99 236.58,934.40 236.83,936.08 237.08,937.75 236.88,940.16"/>
        <lane id=":shrink_0_2" index="2" allow="private emergency authority army vip passenger hov taxi bus coach delivery truck trailer motorcycle evehicle custom1 custom2" speed="24.59" length="8.20" shape="233.61,931.42 233.43,933.82 233.68,935.50 233.93,937.17 233.74,939.57"/>
        <lane id=":shrink_0_3" index="3" allow="private emergency authority army vip passenger hov taxi bus coach delivery truck trailer motorcycle evehicle custom1 custom2" speed="24.59" length="8.20" shape="230.46,930.85 230.28,933.25 230.53,934.92 230.78,936.59 230.59,938.98"/>
        <lane id=":shrink_0_4" index="4" allow="private emergency authority army vip passenger hov taxi bus coach delivery truck trailer motorcycle evehicle custom1 custom2" speed="24.59" length="8.20" shape="227.31,930.28 227.13,932.67 227.39,934.34 227.64,936.01 227.44,938.40"/>
    </edge>
    <edge id=":weaving_int_0" function="internal">
        <lane id=":weaving_int_0_0" index="0" allow="private emergency authority army vip passenger hov taxi bus coach delivery truck trailer motorcycle evehicle custom1 custom2" speed="24.59" length="0.30" shape="263.47,821.02 263.42,821.28"/>
        <lane id=":weaving_int_0_1" index="1" allow="private emergency authority army vip passenger hov taxi bus coach delivery truck trailer motorcycle evehicle custom1 custom2" speed="24.59" length="0.30" shape="260.32,820.42 260.27,820.70"/>
        <lane id=":weaving_int_0_2" index="2" allow="private emergency authority army vip passenger hov taxi bus coach delivery truck trailer motorcycle evehicle custom1 custom2" speed="24.59" length="0.30" shape="257.18,819.82 257.13,820.11"/>
        <lane id=":weaving_int_0_3" index="3" allow="private emergency authority army vip passenger hov taxi bus coach delivery truck trailer motorcycle evehicle custom1 custom2" speed="24.59" length="0.30" shape="254.04,819.22 253.98,819.52"/>
        <lane id=":weaving_int_0_4" index="4" allow="private emergency authority army vip passenger hov taxi bus coach delivery truck trailer motorcycle evehicle custom1 custom2" speed="24.59" length="0.30" shape="250.89,818.63 250.83,818.94"/>
        <lane id=":weaving_int_0_5" index="5" allow="private emergency authority army vip passenger hov taxi bus coach delivery truck trailer motorcycle evehicle custom1 custom2" speed="24.59" length="0.30" shape="247.75,818.03 247.69,818.35"/>
    </edge>

    <edge id="ashby" from="merge_off" to="53003639" priority="9" type="highway.motorway_link" spreadType="center" shape="253.02,833.43 250.00,907.55 249.03,921.79 247.42,937.95 242.99,971.53 241.42,984.93 239.94,999.06 238.57,1014.72 237.83,1029.42 237.81,1043.59 238.01,1058.79 238.67,1073.29 239.86,1087.52 241.50,1101.90 243.38,1115.52 244.41,1122.09 245.58,1128.59 246.92,1135.64 248.34,1142.62 249.76,1148.87">
        <lane id="ashby_0" index="0" allow="private emergency authority army vip passenger hov taxi bus coach delivery truck trailer motorcycle evehicle custom1 custom2" speed="22.22" length="230.60" shape="249.17,919.80 249.03,921.79 247.42,937.95 242.99,971.53 241.42,984.93 239.94,999.06 238.57,1014.72 237.83,1029.42 237.81,1043.59 238.01,1058.79 238.67,1073.29 239.86,1087.52 241.50,1101.90 243.38,1115.52 244.41,1122.09 245.58,1128.59 246.92,1135.64 248.34,1142.62 249.76,1148.87"/>
    </edge>
    <edge id="connector" from="merge_off" to="shrink" priority="14" type="highway.motorway" spreadType="center">
        <lane id="connector_0" index="0" allow="private emergency authority army vip passenger hov taxi bus coach delivery truck trailer motorcycle evehicle custom1 custom2" speed="24.59" length="13.97" shape="245.55,919.39 243.06,933.13"/>
        <lane id="connector_1" index="1" allow="private emergency authority army vip passenger hov taxi bus coach delivery truck trailer motorcycle evehicle custom1 custom2" speed="24.59" length="13.97" shape="242.40,918.82 239.91,932.56"/>
        <lane id="connector_2" index="2" allow="private emergency authority army vip passenger hov taxi bus coach delivery truck trailer motorcycle evehicle custom1 custom2" speed="24.59" length="13.97" shape="239.25,918.25 236.76,931.99"/>
        <lane id="connector_3" index="3" allow="private emergency authority army vip passenger hov taxi bus coach delivery truck trailer motorcycle evehicle custom1 custom2" speed="24.59" length="13.97" shape="236.10,917.68 233.61,931.42"/>
        <lane id="connector_4" index="4" allow="private emergency authority army vip passenger hov taxi bus coach delivery truck trailer motorcycle evehicle custom1 custom2" speed="24.59" length="13.97" shape="232.96,917.10 230.46,930.85"/>
        <lane id="connector_5" index="5" allow="private emergency authority army vip passenger hov taxi bus coach delivery truck trailer motorcycle evehicle custom1 custom2" speed="24.59" length="13.97" shape="229.81,916.53 227.31,930.28"/>
        <param key="ref" value="I 80;I 580"/>
    </edge>
    <edge id="downstream" from="shrink" to="dead_end" priority="14" type="highway.motorway" spreadType="center" shape="234.47,935.64 225.92,981.41 211.85,1053.46 200.62,1114.26 182.49,1208.86 169.79,1274.39 166.37,1292.07 151.16,1370.50 138.39,1436.29 121.72,1523.12 113.27,1566.60 102.89,1622.31 97.21,1651.92 91.18,1681.57 85.12,1710.77 79.06,1740.29">
        <lane id="downstream_0" index="0" allow="private emergency authority army vip passenger hov taxi bus coach delivery truck trailer motorcycle evehicle custom1 custom2" speed="24.59" length="815.53" shape="240.03,940.75 232.21,982.61 218.14,1054.65 206.91,1115.44 188.77,1210.07 176.07,1275.61 172.65,1293.29 157.44,1371.72 144.67,1437.50 128.00,1524.33 119.56,1567.80 109.18,1623.50 103.49,1653.16 97.45,1682.86 91.39,1712.06 85.33,1741.58"/>
        <lane id="downstream_1" index="1" allow="private emergency authority army vip passenger hov taxi bus coach delivery truck trailer motorcycle evehicle custom1 custom2" speed="24.59" length="815.53" shape="236.88,940.16 229.06,982.01 214.99,1054.06 203.76,1114.85 185.63,1209.47 172.93,1275.00 169.51,1292.68 154.30,1371.11 141.53,1436.90 124.86,1523.73 116.41,1567.20 106.03,1622.90 100.35,1652.54 94.31,1682.21 88.25,1711.42 82.19,1740.93"/>
        <lane id="downstream_2" index="2" allow="private emergency authority army vip passenger hov taxi bus coach delivery truck trailer motorcycle evehicle custom1 custom2" speed="24.59" length="815.53" shape="233.74,939.57 225.92,981.41 211.85,1053.46 200.62,1114.26 182.49,1208.86 169.79,1274.39 166.37,1292.07 151.16,1370.50 138.39,1436.29 121.72,1523.12 113.27,1566.60 102.89,1622.31 97.21,1651.92 91.18,1681.57 85.12,1710.77 79.06,1740.29"/>
        <lane id="downstream_3" index="3" allow="private emergency authority army vip passenger hov taxi bus coach delivery truck trailer motorcycle evehicle custom1 custom2" speed="24.59" length="815.53" shape="230.59,938.98 222.78,980.81 208.71,1052.86 197.48,1113.67 179.35,1208.25 166.65,1273.78 163.23,1291.46 148.02,1369.89 135.25,1435.68 118.58,1522.51 110.13,1566.00 99.75,1621.72 94.07,1651.30 88.05,1680.93 81.99,1710.12 75.93,1739.65"/>
        <lane id="downstream_4" index="4" allow="private emergency authority army vip passenger hov taxi bus coach delivery truck trailer motorcycle evehicle custom1 custom2" speed="24.59" length="815.53" shape="227.44,938.40 219.63,980.21 205.56,1052.27 194.33,1113.08 176.21,1207.65 163.51,1273.17 160.09,1290.85 144.88,1369.28 132.11,1435.08 115.44,1521.91 106.98,1565.40 96.60,1621.12 90.93,1650.68 84.91,1680.28 78.85,1709.48 72.79,1739.00"/>
        <param key="ref" value="I 80;I 580"/>
    </edge>
    <edge id="load" from="load_begin" to="load_end" priority="14" type="highway.motorway" spreadType="center" shape="378.83,110.91 376.87,118.10 373.02,132.06 369.35,146.36 365.99,160.94 362.98,175.41 360.30,189.64 357.82,204.49 355.41,219.13 353.42,231.59">
        <lane id="load_0" index="0" allow="private emergency authority army vip passenger hov taxi bus coach delivery truck trailer motorcycle evehicle custom1 custom2" speed="24.59" length="123.28" shape="386.55,113.01 384.58,120.22 380.75,134.12 377.12,148.25 373.80,162.65 370.83,176.97 368.18,191.04 365.71,205.80 363.31,220.41 361.34,232.70"/>
        <lane id="load_1" index="1" allow="private emergency authority army vip passenger hov taxi bus coach delivery truck trailer motorcycle evehicle custom1 custom2" speed="24.59" length="123.28" shape="383.46,112.17 381.50,119.37 377.66,133.29 374.01,147.50 370.68,161.97 367.69,176.34 365.03,190.48 362.56,205.28 360.15,219.90 358.18,232.20"/>
        <lane id="load_2" index="2" allow="private emergency authority army vip passenger hov taxi bus coach delivery truck trailer motorcycle evehicle custom1 custom2" speed="24.59" length="123.28" shape="380.37,111.33 378.41,118.52 374.57,132.47 370.90,146.74 367.55,161.28 364.55,175.72 361.88,189.92 359.40,204.75 356.99,219.39 355.02,231.69"/>
        <lane id="load_3" index="3" allow="private emergency authority army vip passenger hov taxi bus coach delivery truck trailer motorcycle evehicle custom1 custom2" speed="24.59" length="123.28" shape="377.29,110.49 375.33,117.68 371.47,131.65 367.80,145.98 364.43,160.60 361.41,175.10 358.72,189.36 356.24,204.23 353.83,218.87 351.86,231.19"/>
        <lane id="load_4" index="4" allow="private emergency authority army vip passenger hov taxi bus coach delivery truck trailer motorcycle evehicle custom1 custom2" speed="24.59" length="123.28" shape="374.20,109.65 372.24,116.83 368.38,130.83 364.69,145.22 361.30,159.91 358.27,174.48 355.57,188.80 353.08,203.70 350.67,218.36 348.70,230.69"/>
        <lane id="load_5" index="5" allow="private emergency authority army vip passenger hov taxi bus coach delivery truck trailer motorcycle evehicle custom1 custom2" speed="24.59" length="123.28" shape="371.11,108.81 369.16,115.98 365.29,130.00 361.58,144.47 358.18,159.23 355.13,173.85 352.42,188.24 349.93,203.18 347.51,217.85 345.54,230.18"/>
        <param key="ref" value="I 80;I 580"/>
    </edge>
    <edge id="powell" from="76008747" to="merge_on" priority="9" type="highway.motorway_link" spreadType="center" shape="368.06,291.37 357.34,340.93 352.79,363.21 349.73,377.84 346.69,392.70 342.84,412.92 332.47,466.68 328.55,482.29 324.32,496.74 302.87,563.76">
        <lane id="powell_0" index="0" allow="private emergency authority army vip passenger hov taxi bus coach delivery truck trailer motorcycle evehicle custom1 custom2" speed="24.59" length="200.17" shape="367.22,295.27 357.34,340.93 352.79,363.21 349.73,377.84 346.69,392.70 342.84,412.92 332.47,466.68 328.55,482.29 325.98,491.08"/>
    </edge>
    <edge id="powell_ext" from="52978760" to="76008747" priority="-1" spreadType="center" shape="386.63,196.46 384.33,208.49 379.74,230.54 368.06,291.37">
        <lane id="powell_ext_0" index="0" speed="13.89" length="92.73" shape="388.20,196.76 385.90,208.80 381.31,230.85 370.38,287.76"/>
        <lane id="powell_ext_1" index="1" speed="13.89" length="92.73" shape="385.06,196.16 382.76,208.18 378.17,230.23 367.24,287.15"/>
    </edge>
    <edge id="upstream" from="load_end" to="merge_on" priority="14" type="highway.motorway" spreadType="center" shape="353.42,231.59 348.54,263.17 344.29,291.12 322.68,434.75 318.25,463.86 314.00,491.92 311.82,506.22 309.57,520.74 307.39,535.20 305.15,549.41 302.87,563.76">
        <lane id="upstream_0" index="0" allow="private emergency authority army vip passenger hov taxi bus coach delivery truck trailer motorcycle evehicle custom1 custom2" speed="24.59" length="260.17" shape="361.30,232.96 356.45,264.38 352.20,292.32 330.59,435.94 326.16,465.06 322.35,490.23"/>
        <lane id="upstream_1" index="1" allow="private emergency authority army vip passenger hov taxi bus coach delivery truck trailer motorcycle evehicle custom1 custom2" speed="24.59" length="260.17" shape="358.14,232.47 353.28,263.90 349.04,291.84 327.43,435.47 323.00,464.58 319.19,489.73"/>
        <lane id="upstream_2" index="2" allow="private emergency authority army vip passenger hov taxi bus coach delivery truck trailer motorcycle evehicle custom1 custom2" speed="24.59" length="260.17" shape="354.98,231.98 350.12,263.41 345.87,291.36 324.26,434.99 319.83,464.10 316.03,489.23"/>
        <lane id="upstream_3" index="3" allow="private emergency authority army vip passenger hov taxi bus coach delivery truck trailer motorcycle evehicle custom1 custom2" speed="24.59" length="260.17" shape="351.82,231.49 346.96,262.93 342.71,290.88 321.10,434.51 316.67,463.62 312.87,488.72"/>
        <lane id="upstream_4" index="4" allow="private emergency authority army vip passenger hov taxi bus coach delivery truck trailer motorcycle evehicle custom1 custom2" speed="24.59" length="260.17" shape="348.65,231.00 343.80,262.44 339.54,290.40 317.93,434.03 313.50,463.14 309.71,488.22"/>
        <lane id="upstream_5" index="5" allow="private emergency authority army vip passenger hov taxi bus coach delivery truck trailer motorcycle evehicle custom1 custom2" speed="24.59" length="260.17" shape="345.49,230.52 340.63,261.96 336.38,289.92 314.77,433.56 310.34,462.66 306.55,487.72"/>
        <param key="ref" value="I 80;I 580"/>
    </edge>
    <edge id="weaving" from="merge_on" to="weaving_int" priority="14" type="highway.motorway" spreadType="center" shape="302.87,563.76 300.47,578.32 296.69,600.79 294.25,614.54 291.52,629.59 272.13,732.63 255.58,819.67">
        <lane id="weaving_0" index="0" allow="private emergency authority army vip passenger hov taxi bus coach delivery truck trailer motorcycle evehicle custom1 custom2" speed="24.59" length="310.24" shape="318.92,515.59 308.36,579.64 304.57,602.15 302.12,615.95 299.39,631.04 279.99,734.12 263.47,821.02"/>
        <lane id="weaving_1" index="1" allow="private emergency authority army vip passenger hov taxi bus coach delivery truck trailer motorcycle evehicle custom1 custom2" speed="24.59" length="310.24" shape="315.76,515.07 305.20,579.11 301.42,601.61 298.97,615.39 296.24,630.46 276.85,733.52 260.32,820.42"/>
        <lane id="weaving_2" index="2" allow="private emergency authority army vip passenger hov taxi bus coach delivery truck trailer motorcycle evehicle custom1 custom2" speed="24.59" length="310.24" shape="312.60,514.55 302.05,578.58 298.27,601.06 295.82,614.82 293.09,629.88 273.70,732.93 257.18,819.82"/>
        <lane id="weaving_3" index="3" allow="private emergency authority army vip passenger hov taxi bus coach delivery truck trailer motorcycle evehicle custom1 custom2" speed="24.59" length="310.24" shape="309.45,514.02 298.89,578.06 295.11,600.52 292.68,614.26 289.95,629.30 270.56,732.33 254.04,819.22"/>
        <lane id="weaving_4" index="4" allow="private emergency authority army vip passenger hov taxi bus coach delivery truck trailer motorcycle evehicle custom1 custom2" speed="24.59" length="310.24" shape="306.29,513.50 295.74,577.53 291.96,599.97 289.53,613.69 286.80,628.72 267.41,731.74 250.89,818.63"/>
        <lane id="weaving_5" index="5" allow="private emergency authority army vip passenger hov taxi bus coach delivery truck trailer motorcycle evehicle custom1 custom2" speed="24.59" length="310.24" shape="303.13,512.98 292.58,577.00 288.81,599.43 286.38,613.13 283.65,628.14 264.27,731.14 247.75,818.03"/>
        <param key="ref" value="I 80;I 580"/>
    </edge>
    <edge id="weaving_ext" from="weaving_int" to="merge_off" priority="14" type="highway.motorway" spreadType="center">
        <lane id="weaving_ext_0" index="0" allow="private emergency authority army vip passenger hov taxi bus coach delivery truck trailer motorcycle evehicle custom1 custom2" speed="24.59" length="65.21" shape="263.42,821.28 251.49,885.39"/>
        <lane id="weaving_ext_1" index="1" allow="private emergency authority army vip passenger hov taxi bus coach delivery truck trailer motorcycle evehicle custom1 custom2" speed="24.59" length="65.21" shape="260.27,820.70 248.34,884.80"/>
        <lane id="weaving_ext_2" index="2" allow="private emergency authority army vip passenger hov taxi bus coach delivery truck trailer motorcycle evehicle custom1 custom2" speed="24.59" length="65.21" shape="257.13,820.11 245.20,884.22"/>
        <lane id="weaving_ext_3" index="3" allow="private emergency authority army vip passenger hov taxi bus coach delivery truck trailer motorcycle evehicle custom1 custom2" speed="24.59" length="65.21" shape="253.98,819.52 242.05,883.63"/>
        <lane id="weaving_ext_4" index="4" allow="private emergency authority army vip passenger hov taxi bus coach delivery truck trailer motorcycle evehicle custom1 custom2" speed="24.59" length="65.21" shape="250.83,818.94 238.91,883.05"/>
        <lane id="weaving_ext_5" index="5" allow="private emergency authority army vip passenger hov taxi bus coach delivery truck trailer motorcycle evehicle custom1 custom2" speed="24.59" length="65.21" shape="247.69,818.35 235.76,882.46"/>
        <param key="ref" value="I 80;I 580"/>
    </edge>

    <junction id="52978760" type="dead_end" x="386.63" y="196.46" incLanes="" intLanes="" shape="383.49,195.86 389.77,197.06"/>
    <junction id="53003639" type="dead_end" x="249.76" y="1148.87" incLanes="ashby_0" intLanes="" shape="251.32,1148.52 248.20,1149.22"/>
    <junction id="76008747" type="priority" x="368.06" y="291.37" incLanes="powell_ext_0 powell_ext_1" intLanes=":76008747_0_0" shape="371.95,288.06 365.67,286.85 365.52,289.83 365.70,290.90 365.87,291.96 365.90,293.23 365.65,294.93 368.78,295.60 369.82,292.76 370.40,291.84 370.98,290.91 371.51,289.74">
        <request index="0" response="0" foes="0" cont="0"/>
    </junction>
    <junction id="dead_end" type="dead_end" x="79.06" y="1740.29" incLanes="downstream_0 downstream_1 downstream_2 downstream_3 downstream_4" intLanes="" shape="86.90,1741.90 71.22,1738.68"/>
    <junction id="load_begin" type="dead_end" x="378.83" y="110.91" incLanes="" intLanes="" shape="369.57,108.39 388.09,113.43"/>