<?xml version="1.0" encoding="UTF-8"?>

<!-- generated on 2022-09-28 20:55:58 by Eclipse SUMO netedit Version 1.14.1
<configuration xmlns:xsi="http://www.w3.org/2001/XMLSchema-instance" xsi:noNamespaceSchemaLocation="http://sumo.dlr.de/xsd/netconvertConfiguration.xsd">

    <output>
        <output-file value="/home/dave/Desktop/fall_22/ce_299/env/bottleneck/config/bottleneck.net.xml"/>
    </output>

    <processing>
        <offset.disable-normalization value="true"/>
    </processing>

    <junctions>
        <no-turnarounds value="true"/>
    </junctions>

    <netedit>
        <additional-files value="/home/dave/Desktop/fall_22/ce_299/env/bottleneck/config/bottleneck.add.xml"/>
    </netedit>

</configuration>
-->

<net version="1.9" junctionCornerDetail="5" limitTurnSpeed="5.50" xmlns:xsi="http://www.w3.org/2001/XMLSchema-instance" xsi:noNamespaceSchemaLocation="http://sumo.dlr.de/xsd/net_file.xsd">

    <location netOffset="0.00,0.00" convBoundary="-310.25,51.65,516.91,51.89" origBoundary="10000000000.00,10000000000.00,-10000000000.00,-10000000000.00" projParameter="!"/>

    <edge id=":bn_entry_0" function="internal">
        <lane id=":bn_entry_0_0" index="0" speed="13.89" length="17.35" shape="139.87,40.69 145.02,41.19 148.47,42.30 151.92,43.41 157.06,43.90"/>
        <lane id=":bn_entry_0_1" index="1" speed="13.89" length="17.35" shape="139.87,43.89 157.06,43.90"/>
        <lane id=":bn_entry_0_2" index="2" speed="13.89" length="17.35" shape="139.87,43.89 145.02,44.39 148.47,45.50 151.92,46.61 157.07,47.10"/>
        <lane id=":bn_entry_0_3" index="3" speed="13.89" length="17.35" shape="139.87,47.09 157.07,47.10"/>
        <lane id=":bn_entry_0_4" index="4" speed="13.89" length="17.35" shape="139.87,50.29 157.07,50.30"/>
    </edge>
    <edge id=":bn_exit_0" function="internal">
        <lane id=":bn_exit_0_0" index="0" speed="13.89" length="8.20" shape="309.84,43.66 312.30,43.15 313.84,42.05 315.38,40.95 317.84,40.45"/>
        <lane id=":bn_exit_0_1" index="1" speed="13.89" length="8.20" shape="309.84,43.66 317.84,43.65"/>
        <lane id=":bn_exit_0_2" index="2" speed="13.89" length="8.20" shape="309.84,46.86 317.84,46.85"/>
        <lane id=":bn_exit_0_3" index="3" speed="13.89" length="8.20" shape="309.85,50.06 317.84,50.05"/>
    </edge>
    <edge id=":entry_0" function="internal">
        <lane id=":entry_0_0" index="0" speed="13.89" length="0.30" shape="-49.72,40.66 -49.42,40.66"/>
        <lane id=":entry_0_1" index="1" speed="13.89" length="0.30" shape="-49.72,43.86 -49.42,43.86"/>
        <lane id=":entry_0_2" index="2" speed="13.89" length="0.30" shape="-49.72,47.06 -49.42,47.06"/>
        <lane id=":entry_0_3" index="3" speed="13.89" length="0.30" shape="-49.72,50.26 -49.42,50.26"/>
    </edge>

    <edge id="bottleneck" from="bn_entry" to="bn_exit" priority="-1">
        <lane id="bottleneck_0" index="0" speed="13.89" length="152.77" shape="157.06,43.90 309.84,43.66"/>
        <lane id="bottleneck_1" index="1" speed="13.89" length="152.77" shape="157.07,47.10 309.84,46.86"/>
        <lane id="bottleneck_2" index="2" speed="13.89" length="152.77" shape="157.07,50.30 309.85,50.06"/>
    </edge>
    <edge id="downstream" from="bn_exit" to="exit" priority="-1">
        <lane id="downstream_0" index="0" speed="13.89" length="199.08" shape="317.84,40.45 516.92,40.59"/>
        <lane id="downstream_1" index="1" speed="13.89" length="199.08" shape="317.84,43.65 516.92,43.79"/>
        <lane id="downstream_2" index="2" speed="13.89" length="199.08" shape="317.84,46.85 516.92,46.99"/>
        <lane id="downstream_3" index="3" speed="13.89" length="199.08" shape="317.84,50.05 516.91,50.19"/>
    </edge>
    <edge id="loading" from="src" to="entry" priority="-1">
        <lane id="loading_0" index="0" speed="13.89" length="260.53" shape="-310.25,40.57 -49.72,40.66"/>
        <lane id="loading_1" index="1" speed="13.89" length="260.53" shape="-310.25,43.77 -49.72,43.86"/>
        <lane id="loading_2" index="2" speed="13.89" length="260.53" shape="-310.25,46.97 -49.72,47.06"/>
        <lane id="loading_3" index="3" speed="13.89" length="260.53" shape="-310.25,50.17 -49.72,50.26"/>
    </edge>
    <edge id="upstream" from="entry" to="bn_entry" priority="-1" shape="-49.57,51.86 139.87,51.89">
        <lane id="upstream_0" index="0" speed="13.89" length="189.29" shape="-49.42,40.66 139.87,40.69"/>
        <lane id="upstream_1" index="1" speed="13.89" length="189.29" shape="-49.42,43.86 139.87,43.89"/>
        <lane id="upstream_2" index="2" speed="13.89" length="189.29" shape="-49.42,47.06 139.87,47.09"/>
        <lane id="upstream_3" index="3" speed="13.89" length="189.29" shape="-49.42,50.26 139.87,50.29"/>
    </edge>

    <junction id="bn_entry" type="zipper" x="166.27" y="51.89" incLanes="upstream_0 upstream_1 upstream_2 upstream_3" intLanes=":bn_entry_0_0 :bn_entry_0_1 :bn_entry_0_2 :bn_entry_0_3 :bn_entry_0_4" shape="157.08,51.90 157.06,42.30 153.36,42.07 150.66,41.48 146.27,39.93 143.57,39.33 139.87,39.09 139.87,51.89">
        <request index="0" response="00010" foes="00010" cont="0"/>
        <request index="1" response="00001" foes="00001" cont="0"/>
        <request index="2" response="01000" foes="01000" cont="0"/>
        <request index="3" response="00100" foes="00100" cont="0"/>
        <request index="4" response="00000" foes="00000" cont="0"/>
    </junction>
    <junction id="bn_exit" type="priority" x="313.84" y="51.65" incLanes="bottleneck_0 bottleneck_1 bottleneck_2" intLanes=":bn_exit_0_0 :bn_exit_0_1 :bn_exit_0_2 :bn_exit_0_3" shape="317.84,51.65 317.84,38.85 314.81,39.68 312.87,41.22 311.62,41.82 309.83,42.06 309.85,51.66">
        <request index="0" response="0000" foes="0000" cont="0"/>
        <request index="1" response="0000" foes="0000" cont="0"/>
        <request index="2" response="0000" foes="0000" cont="0"/>
        <request index="3" response="0000" foes="0000" cont="0"/>
    </junction>
    <junction id="entry" type="priority" x="-49.57" y="51.86" incLanes="loading_0 loading_1 loading_2 loading_3" intLanes=":entry_0_0 :entry_0_1 :entry_0_2 :entry_0_3" shape="-49.42,51.86 -49.42,39.06 -49.72,39.06 -49.72,51.86">
        <request index="0" response="0000" foes="0000" cont="0"/>
        <request index="1" response="0000" foes="0000" cont="0"/>
        <request index="2" response="0000" foes="0000" cont="0"/>
        <request index="3" response="0000" foes="0000" cont="0"/>
    </junction>
    <junction id="exit" type="dead_end" x="516.91" y="51.79" incLanes="downstream_0 downstream_1 downstream_2 downstream_3" intLanes="" shape="516.92,38.99 516.91,51.79"/>
    <junction id="src" type="dead_end" x="-310.25" y="51.77" incLanes="" intLanes="" shape="-310.25,51.77 -310.25,38.97"/>

    <connection from="bottleneck" to="downstream" fromLane="0" toLane="0" via=":bn_exit_0_0" dir="s" state="M"/>
    <connection from="bottleneck" to="downstream" fromLane="0" toLane="1" via=":bn_exit_0_1" dir="s" state="M"/>
    <connection from="bottleneck" to="downstream" fromLane="1" toLane="2" via=":bn_exit_0_2" dir="s" state="M"/>
    <connection from="bottleneck" to="downstream" fromLane="2" toLane="3" via=":bn_exit_0_3" dir="s" state="M"/>
    <connection from="loading" to="upstream" fromLane="0" toLane="0" via=":entry_0_0" dir="s" state="M"/>
    <connection from="loading" to="upstream" fromLane="1" toLane="1" via=":entry_0_1" dir="s" state="M"/>
    <connection from="loading" to="upstream" fromLane="2" toLane="2" via=":entry_0_2" dir="s" state="M"/>
    <connection from="loading" to="upstream" fromLane="3" toLane="3" via=":entry_0_3" dir="s" state="M"/>
    <connection from="upstream" to="bottleneck" fromLane="0" toLane="0" via=":bn_entry_0_0" dir="s" state="Z"/>
    <connection from="upstream" to="bottleneck" fromLane="1" toLane="0" via=":bn_entry_0_1" dir="s" state="Z"/>
    <connection from="upstream" to="bottleneck" fromLane="1" toLane="1" via=":bn_entry_0_2" dir="s" state="Z"/>
    <connection from="upstream" to="bottleneck" fromLane="2" toLane="1" keepClear="0" via=":bn_entry_0_3" dir="s" state="Z"/>
    <connection from="upstream" to="bottleneck" fromLane="3" toLane="2" keepClear="0" via=":bn_entry_0_4" dir="s" state="M"/>

    <connection from=":bn_entry_0" to="bottleneck" fromLane="0" toLane="0" dir="s" state="M"/>
    <connection from=":bn_entry_0" to="bottleneck" fromLane="1" toLane="0" dir="s" state="M"/>
    <connection from=":bn_entry_0" to="bottleneck" fromLane="2" toLane="1" dir="s" state="M"/>
    <connection from=":bn_entry_0" to="bottleneck" fromLane="3" toLane="1" dir="s" state="M"/>
    <connection from=":bn_entry_0" to="bottleneck" fromLane="4" toLane="2" dir="s" state="M"/>
    <connection from=":bn_exit_0" to="downstream" fromLane="0" toLane="0" dir="s" state="M"/>
    <connection from=":bn_exit_0" to="downstream" fromLane="1" toLane="1" dir="s" state="M"/>
    <connection from=":bn_exit_0" to="downstream" fromLane="2" toLane="2" dir="s" state="M"/>
    <connection from=":bn_exit_0" to="downstream" fromLane="3" toLane="3" dir="s" state="M"/>
    <connection from=":entry_0" to="upstream" fromLane="0" toLane="0" dir="s" state="M"/>
    <connection from=":entry_0" to="upstream" fromLane="1" toLane="1" dir="s" state="M"/>
    <connection from=":entry_0" to="upstream" fromLane="2" toLane="2" dir="s" state="M"/>
    <connection from=":entry_0" to="upstream" fromLane="3" toLane="3" dir="s" state="M"/>

</net>
