<?xml version="1.0" encoding="UTF-8"?>

<!-- generated on 2022-09-28 20:48:46 by Eclipse SUMO netedit Version 1.14.1
-->

<additional xmlns:xsi="http://www.w3.org/2001/XMLSchema-instance" xsi:noNamespaceSchemaLocation="http://sumo.dlr.de/xsd/additional_file.xsd">
    <!-- Detectors -->
    <e1Detector id="e1_0" lane="loading_3" pos="319.16" period="300.00" file="../data/induction_loop.xml"/>
    <e1Detector id="e1_1" lane="loading_2" pos="318.97" period="300.00" file="../data/induction_loop.xml"/>
    <e1Detector id="e1_2" lane="loading_1" pos="318.77" period="300.00" file="../data/induction_loop.xml"/>
    <e1Detector id="e1_3" lane="loading_0" pos="318.77" period="300.00" file="../data/induction_loop.xml"/>
    <!-- Wires -->
    <tractionSubstation id="tr_0" pos="100.87,27.86" voltage="600.00" currentLimit="400.00"/>
</additional>
