<?xml version="1.0" encoding="UTF-8"?>

<!-- generated on 2022-10-06 16:23:49 by Eclipse SUMO netedit Version 1.14.1
<configuration xmlns:xsi="http://www.w3.org/2001/XMLSchema-instance" xsi:noNamespaceSchemaLocation="http://sumo.dlr.de/xsd/netconvertConfiguration.xsd">

    <output>
        <output-file value="/home/dave/Desktop/fall_22/ce_299/ce299_fall2022/simulation/weaving/config/weaving.net.xml"/>
    </output>

    <processing>
        <offset.disable-normalization value="true"/>
    </processing>

    <junctions>
        <no-turnarounds value="true"/>
    </junctions>

</configuration>
-->

<net version="1.9" junctionCornerDetail="5" limitTurnSpeed="5.50" xmlns:xsi="http://www.w3.org/2001/XMLSchema-instance" xsi:noNamespaceSchemaLocation="http://sumo.dlr.de/xsd/net_file.xsd">

    <location netOffset="0.00,0.00" convBoundary="-693.78,-23.94,1054.13,38.97" origBoundary="10000000000.00,10000000000.00,-10000000000.00,-10000000000.00" projParameter="!"/>

    <edge id=":J2_0" function="internal">
        <lane id=":J2_0_0" index="0" speed="22.35" length="0.30" width="3.66" shape="-19.61,24.66 -19.28,24.66"/>
        <lane id=":J2_0_1" index="1" speed="22.35" length="0.30" width="3.66" shape="-19.61,28.32 -19.30,28.32"/>
        <lane id=":J2_0_2" index="2" speed="22.35" length="0.30" width="3.66" shape="-19.61,31.97 -19.32,31.97"/>
        <lane id=":J2_0_3" index="3" speed="22.35" length="0.30" width="3.66" shape="-19.61,35.63 -19.34,35.63"/>
    </edge>
    <edge id=":J3_0" function="internal">
        <lane id=":J3_0_0" index="0" speed="22.35" length="5.47" width="3.66" shape="179.10,21.85 180.68,22.25 181.76,22.52 182.86,22.67 184.48,22.71"/>
    </edge>
    <edge id=":J3_1" function="internal">
        <lane id=":J3_1_0" index="0" speed="22.35" length="5.95" width="3.66" shape="178.63,25.80 180.37,25.90 181.56,26.09 182.75,26.29 184.49,26.37"/>
        <lane id=":J3_1_1" index="1" speed="22.35" length="5.95" width="3.66" shape="178.61,29.45 180.36,29.55 181.56,29.75 182.75,29.94 184.50,30.03"/>
        <lane id=":J3_1_2" index="2" speed="22.35" length="5.95" width="3.66" shape="178.59,33.11 180.35,33.21 181.55,33.41 182.75,33.60 184.51,33.68"/>
        <lane id=":J3_1_3" index="3" speed="22.35" length="5.95" width="3.66" shape="178.57,36.77 180.34,36.87 181.55,37.07 182.75,37.26 184.53,37.34"/>
    </edge>
    <edge id=":J4_0" function="internal">
        <lane id=":J4_0_0" index="0" speed="18.12" length="3.66" width="3.66" shape="748.40,20.78 749.49,20.77 750.23,20.72 750.96,20.58 752.01,20.30"/>
    </edge>
    <edge id=":J4_1" function="internal">
        <lane id=":J4_1_0" index="0" speed="22.35" length="3.03" width="3.66" shape="748.41,24.44 751.46,24.61"/>
        <lane id=":J4_1_1" index="1" speed="22.35" length="3.03" width="3.66" shape="748.42,28.09 751.46,28.27"/>
        <lane id=":J4_1_2" index="2" speed="22.35" length="3.03" width="3.66" shape="748.44,31.75 751.46,31.93"/>
        <lane id=":J4_1_3" index="3" speed="22.35" length="3.03" width="3.66" shape="748.45,35.41 751.46,35.59"/>
    </edge>

    <edge id="downstream" from="J4" to="J5" priority="-1">
        <lane id="downstream_0" index="0" speed="22.35" length="302.67" width="3.66" shape="751.46,24.61 1054.13,24.67"/>
        <lane id="downstream_1" index="1" speed="22.35" length="302.67" width="3.66" shape="751.46,28.27 1054.13,28.33"/>
        <lane id="downstream_2" index="2" speed="22.35" length="302.67" width="3.66" shape="751.46,31.93 1054.13,31.99"/>
        <lane id="downstream_3" index="3" speed="22.35" length="302.67" width="3.66" shape="751.46,35.59 1054.13,35.65"/>
    </edge>
    <edge id="load" from="J1" to="J2" priority="-1" spreadType="roadCenter">
        <lane id="load_0" index="0" speed="22.35" length="674.17" width="3.66" shape="-693.78,24.66 -19.61,24.66"/>
        <lane id="load_1" index="1" speed="22.35" length="674.17" width="3.66" shape="-693.78,28.32 -19.61,28.32"/>
        <lane id="load_2" index="2" speed="22.35" length="674.17" width="3.66" shape="-693.78,31.97 -19.61,31.97"/>
        <lane id="load_3" index="3" speed="22.35" length="674.17" width="3.66" shape="-693.78,35.63 -19.61,35.63"/>
    </edge>
    <edge id="off_ramp" from="J4" to="J7" priority="-1">
        <lane id="off_ramp_0" index="0" speed="13.89" length="125.73" width="3.66" shape="752.01,20.30 872.96,-14.05"/>
    </edge>
    <edge id="on_ramp" from="J6" to="J3" priority="-1">
        <lane id="on_ramp_0" index="0" speed="22.35" length="205.56" width="3.66" shape="-20.88,-25.72 179.10,21.85"/>
    </edge>
    <edge id="upstream" from="J2" to="J3" priority="-1">
        <lane id="upstream_0" index="0" speed="22.35" length="197.91" width="3.66" shape="-19.28,24.66 178.63,25.80"/>
        <lane id="upstream_1" index="1" speed="22.35" length="197.91" width="3.66" shape="-19.30,28.32 178.61,29.45"/>
        <lane id="upstream_2" index="2" speed="22.35" length="197.91" width="3.66" shape="-19.32,31.97 178.59,33.11"/>
        <lane id="upstream_3" index="3" speed="22.35" length="197.91" width="3.66" shape="-19.34,35.63 178.57,36.77"/>
    </edge>
    <edge id="weaving" from="J3" to="J4" priority="-1">
        <lane id="weaving_0" index="0" speed="22.35" length="563.93" width="3.66" acceleration="1" shape="184.48,22.71 748.40,20.78"/>
        <lane id="weaving_1" index="1" speed="22.35" length="563.93" width="3.66" shape="184.49,26.37 748.41,24.44"/>
        <lane id="weaving_2" index="2" speed="22.35" length="563.93" width="3.66" shape="184.50,30.03 748.42,28.09"/>
        <lane id="weaving_3" index="3" speed="22.35" length="563.93" width="3.66" shape="184.51,33.68 748.44,31.75"/>
        <lane id="weaving_4" index="4" speed="22.35" length="563.93" width="3.66" shape="184.53,37.34 748.45,35.41"/>
    </edge>

    <junction id="J1" type="dead_end" x="-693.78" y="37.46" incLanes="" intLanes="" shape="-693.78,37.46 -693.78,22.83"/>
    <junction id="J2" type="priority" x="-19.48" y="37.46" incLanes="load_0 load_1 load_2 load_3" intLanes=":J2_0_0 :J2_0_1 :J2_0_2 :J2_0_3" shape="-19.35,37.46 -19.27,22.83 -19.61,22.83 -19.61,37.46">
        <request index="0" response="0000" foes="0000" cont="0"/>
        <request index="1" response="0000" foes="0000" cont="0"/>
        <request index="2" response="0000" foes="0000" cont="0"/>
        <request index="3" response="0000" foes="0000" cont="0"/>
    </junction>
    <junction id="J3" type="priority" x="243.17" y="38.97" incLanes="on_ramp_0 upstream_0 upstream_1 upstream_2 upstream_3" intLanes=":J3_0_0 :J3_1_0 :J3_1_1 :J3_1_2 :J3_1_3" shape="184.53,39.17 184.47,20.88 182.62,20.80 181.97,20.70 181.34,20.54 180.57,20.33 179.53,20.07 178.68,23.63 178.64,23.97 178.56,38.60 180.77,38.76 181.54,38.90 182.32,39.03 183.26,39.13">
        <request index="0" response="00000" foes="00000" cont="0"/>
        <request index="1" response="00000" foes="00000" cont="0"/>
        <request index="2" response="00000" foes="00000" cont="0"/>
        <request index="3" response="00000" foes="00000" cont="0"/>
        <request index="4" response="00000" foes="00000" cont="0"/>
    </junction>
    <junction id="J4" type="priority" x="698.44" y="37.41" incLanes="weaving_0 weaving_1 weaving_2 weaving_3 weaving_4" intLanes=":J4_0_0 :J4_1_0 :J4_1_1 :J4_1_2 :J4_1_3" shape="751.46,37.42 751.46,22.78 750.91,22.70 750.97,22.60 751.26,22.46 751.77,22.28 752.51,22.06 751.51,18.54 750.38,18.83 749.97,18.90 749.56,18.94 749.07,18.95 748.39,18.95 748.46,37.24">
        <request index="0" response="00000" foes="00000" cont="0"/>
        <request index="1" response="00000" foes="00000" cont="0"/>
        <request index="2" response="00000" foes="00000" cont="0"/>
        <request index="3" response="00000" foes="00000" cont="0"/>
        <request index="4" response="00000" foes="00000" cont="0"/>
    </junction>
    <junction id="J5" type="dead_end" x="1054.13" y="37.48" incLanes="downstream_0 downstream_1 downstream_2 downstream_3" intLanes="" shape="1054.13,22.84 1054.13,37.48"/>
    <junction id="J6" type="dead_end" x="-21.30" y="-23.94" incLanes="" intLanes="" shape="-21.30,-23.94 -20.45,-27.50"/>
    <junction id="J7" type="dead_end" x="873.46" y="-12.29" incLanes="off_ramp_0" intLanes="" shape="872.46,-15.81 873.46,-12.29"/>

    <connection from="load" to="upstream" fromLane="0" toLane="0" via=":J2_0_0" dir="s" state="M"/>
    <connection from="load" to="upstream" fromLane="1" toLane="1" via=":J2_0_1" dir="s" state="M"/>
    <connection from="load" to="upstream" fromLane="2" toLane="2" via=":J2_0_2" dir="s" state="M"/>
    <connection from="load" to="upstream" fromLane="3" toLane="3" via=":J2_0_3" dir="s" state="M"/>
    <connection from="on_ramp" to="weaving" fromLane="0" toLane="0" via=":J3_0_0" dir="s" state="M"/>
    <connection from="upstream" to="weaving" fromLane="0" toLane="1" via=":J3_1_0" dir="s" state="M"/>
    <connection from="upstream" to="weaving" fromLane="1" toLane="2" via=":J3_1_1" dir="s" state="M"/>
    <connection from="upstream" to="weaving" fromLane="2" toLane="3" via=":J3_1_2" dir="s" state="M"/>
    <connection from="upstream" to="weaving" fromLane="3" toLane="4" via=":J3_1_3" dir="s" state="M"/>
    <connection from="weaving" to="off_ramp" fromLane="0" toLane="0" via=":J4_0_0" dir="R" state="M"/>
    <connection from="weaving" to="downstream" fromLane="1" toLane="0" via=":J4_1_0" dir="s" state="M"/>
    <connection from="weaving" to="downstream" fromLane="2" toLane="1" via=":J4_1_1" dir="s" state="M"/>
    <connection from="weaving" to="downstream" fromLane="3" toLane="2" via=":J4_1_2" dir="s" state="M"/>
    <connection from="weaving" to="downstream" fromLane="4" toLane="3" via=":J4_1_3" dir="s" state="M"/>

    <connection from=":J2_0" to="upstream" fromLane="0" toLane="0" dir="s" state="M"/>
    <connection from=":J2_0" to="upstream" fromLane="1" toLane="1" dir="s" state="M"/>
    <connection from=":J2_0" to="upstream" fromLane="2" toLane="2" dir="s" state="M"/>
    <connection from=":J2_0" to="upstream" fromLane="3" toLane="3" dir="s" state="M"/>
    <connection from=":J3_0" to="weaving" fromLane="0" toLane="0" dir="s" state="M"/>
    <connection from=":J3_1" to="weaving" fromLane="0" toLane="1" dir="s" state="M"/>
    <connection from=":J3_1" to="weaving" fromLane="1" toLane="2" dir="s" state="M"/>
    <connection from=":J3_1" to="weaving" fromLane="2" toLane="3" dir="s" state="M"/>
    <connection from=":J3_1" to="weaving" fromLane="3" toLane="4" dir="s" state="M"/>
    <connection from=":J4_0" to="off_ramp" fromLane="0" toLane="0" dir="R" state="M"/>
    <connection from=":J4_1" to="downstream" fromLane="0" toLane="0" dir="s" state="M"/>
    <connection from=":J4_1" to="downstream" fromLane="1" toLane="1" dir="s" state="M"/>
    <connection from=":J4_1" to="downstream" fromLane="2" toLane="2" dir="s" state="M"/>
    <connection from=":J4_1" to="downstream" fromLane="3" toLane="3" dir="s" state="M"/>

</net>
